CaseModels/02 30-Bus/_30Bus.json
{"NOpf":{},"base pf":{"bus":{"24":{"source_id":["bus",24],"zone":1,"area":1,"vmin":0.9,"bus_i":24,"index":24,"bus_type":1,"va":1.4300698532479406,"name":"Bus 24","vm":1.0215836,"vmax":1.1,"base_kv":33.0},"4":{"source_id":["bus",4],"zone":1,"area":1,"vmin":0.9,"bus_i":4,"index":4,"bus_type":1,"va":1.5559174821881074,"name":"Hancock","vm":1.0117647,"vmax":1.1,"base_kv":132.0},"1":{"source_id":["bus",1],"zone":1,"area":1,"vmin":0.9,"bus_i":1,"index":1,"bus_type":3,"va":1.717955420739588,"name":"Glen Lyn","vm":1.0599999,"vmax":1.1,"base_kv":132.0},"12":{"source_id":["bus",12],"zone":1,"area":1,"vmin":0.9,"bus_i":12,"index":12,"bus_type":1,"va":1.4571458440658296,"name":"Hancock","vm":1.0571196,"vmax":1.1,"base_kv":33.0},"29":{"source_id":["bus",29],"zone":1,"area":1,"vmin":0.9,"bus_i":29,"index":29,"bus_type":1,"va":1.4252233357145403,"name":"Bus 29","vm":1.0034104,"vmax":1.1,"base_kv":33.0},"20":{"source_id":["bus",20],"zone":1,"area":1,"vmin":0.9,"bus_i":20,"index":20,"bus_type":1,"va":1.4296471694096928,"name":"Bus 20","vm":1.029738,"vmax":1.1,"base_kv":33.0},"2":{"source_id":["bus",2],"zone":1,"area":1,"vmin":0.9,"bus_i":2,"index":2,"bus_type":2,"va":1.6245489247379403,"name":"Claytor","vm":1.0431345,"vmax":1.1,"base_kv":132.0},"6":{"source_id":["bus",6],"zone":1,"area":1,"vmin":0.9,"bus_i":6,"index":6,"bus_type":1,"va":1.524841807589886,"name":"Roanoke","vm":1.0102573,"vmax":1.1,"base_kv":132.0},"25":{"source_id":["bus",25],"zone":1,"area":1,"vmin":0.9,"bus_i":25,"index":25,"bus_type":1,"va":1.4375375935184487,"name":"Bus 25","vm":1.0173382,"vmax":1.1,"base_kv":33.0},"23":{"source_id":["bus",23],"zone":1,"area":1,"vmin":0.9,"bus_i":23,"index":23,"bus_type":1,"va":1.4331517730944046,"name":"Bus 23","vm":1.0271824,"vmax":1.1,"base_kv":33.0},"22":{"source_id":["bus",22],"zone":1,"area":1,"vmin":0.9,"bus_i":22,"index":22,"bus_type":1,"va":1.436466816569058,"name":"Bus 22","vm":1.033258,"vmax":1.1,"base_kv":33.0},"11":{"source_id":["bus",11],"zone":1,"area":1,"vmin":0.9,"bus_i":11,"index":11,"bus_type":2,"va":1.4717085222786197,"name":"Roanoke","vm":1.082,"vmax":1.1,"base_kv":11.0},"13":{"source_id":["bus",13],"zone":1,"area":1,"vmin":0.9,"bus_i":13,"index":13,"bus_type":2,"va":1.4571458789724145,"name":"Hancock","vm":1.071,"vmax":1.1,"base_kv":11.0},"5":{"source_id":["bus",5],"zone":1,"area":1,"vmin":0.9,"bus_i":5,"index":5,"bus_type":2,"va":1.470716372412031,"name":"Fieldale","vm":1.01,"vmax":1.1,"base_kv":132.0},"15":{"source_id":["bus",15],"zone":1,"area":1,"vmin":0.9,"bus_i":15,"index":15,"bus_type":1,"va":1.4399705475891438,"name":"Bus 15","vm":1.0376827,"vmax":1.1,"base_kv":33.0},"27":{"source_id":["bus",27],"zone":1,"area":1,"vmin":0.9,"bus_i":27,"index":27,"bus_type":1,"va":1.4466898732231042,"name":"Cloverdl","vm":1.0232493,"vmax":1.1,"base_kv":33.0},"28":{"source_id":["bus",28],"zone":1,"area":1,"vmin":0.9,"bus_i":28,"index":28,"bus_type":1,"va":1.513954635702163,"name":"Cloverdl","vm":1.0068172,"vmax":1.1,"base_kv":132.0},"16":{"source_id":["bus",16],"zone":1,"area":1,"vmin":0.9,"bus_i":16,"index":16,"bus_type":1,"va":1.4469700509279269,"name":"Bus 16","vm":1.0443903,"vmax":1.1,"base_kv":33.0},"14":{"source_id":["bus",14],"zone":1,"area":1,"vmin":0.9,"bus_i":14,"index":14,"bus_type":1,"va":1.4415750636770872,"name":"Bus 14","vm":1.0422808,"vmax":1.1,"base_kv":33.0},"21":{"source_id":["bus",21],"zone":1,"area":1,"vmin":0.9,"bus_i":21,"index":21,"bus_type":1,"va":1.4362183514967437,"name":"Bus 21","vm":1.0327267,"vmax":1.1,"base_kv":33.0},"7":{"source_id":["bus",7],"zone":1,"area":1,"vmin":0.9,"bus_i":7,"index":7,"bus_type":1,"va":1.4934170671412654,"name":"Blaine","vm":1.0023772,"vmax":1.1,"base_kv":132.0},"8":{"source_id":["bus",8],"zone":1,"area":1,"vmin":0.9,"bus_i":8,"index":8,"bus_type":2,"va":1.5117746321999594,"name":"Reusens","vm":1.01,"vmax":1.1,"base_kv":132.0},"26":{"source_id":["bus",26],"zone":1,"area":1,"vmin":0.9,"bus_i":26,"index":26,"bus_type":1,"va":1.4302131971394068,"name":"Bus 26","vm":0.9996609,"vmax":1.1,"base_kv":33.0},"17":{"source_id":["bus",17],"zone":1,"area":1,"vmin":0.9,"bus_i":17,"index":17,"bus_type":1,"va":1.4411226045218004,"name":"Bus 17","vm":1.0399026,"vmax":1.1,"base_kv":33.0},"10":{"source_id":["bus",10],"zone":1,"area":1,"vmin":0.9,"bus_i":10,"index":10,"bus_type":1,"va":1.4439451509881254,"name":"Roanoke","vm":1.0451273,"vmax":1.1,"base_kv":33.0},"19":{"source_id":["bus",19],"zone":1,"area":1,"vmin":0.9,"bus_i":19,"index":19,"bus_type":1,"va":1.4262165327786802,"name":"Bus 19","vm":1.0256524,"vmax":1.1,"base_kv":33.0},"9":{"source_id":["bus",9],"zone":1,"area":1,"vmin":0.9,"bus_i":9,"index":9,"bus_type":1,"va":1.4717084873720347,"name":"Roanoke","vm":1.0509123,"vmax":1.1,"base_kv":1.0},"18":{"source_id":["bus",18],"zone":1,"area":1,"vmin":0.9,"bus_i":18,"index":18,"bus_type":1,"va":1.429248798007925,"name":"Bus 18","vm":1.0281536,"vmax":1.1,"base_kv":33.0},"30":{"source_id":["bus",30],"zone":1,"area":1,"vmin":0.9,"bus_i":30,"index":30,"bus_type":1,"va":1.4098151327456212,"name":"Bus 30","vm":0.9919358,"vmax":1.1,"base_kv":33.0},"3":{"source_id":["bus",3],"zone":1,"area":1,"vmin":0.9,"bus_i":3,"index":3,"bus_type":1,"va":1.5864975879985177,"name":"Kumis","vm":1.0207417,"vmax":1.1,"base_kv":132.0}},"source_type":"matpower","name":"IEEE 30 bus","dcline":{},"source_version":"2","gen":{"4":{"ncost":2,"qc1max":0.0,"pg":0.4,"model":2,"shutdown":0.0,"startup":0.0,"qc2max":0.0,"ramp_agc":0.0,"qg":0.5,"gen_bus":2,"pmax":0.4,"ramp_10":0.0,"vg":1.045,"mbase":100.0,"source_id":["gen",2],"pc2":0.0,"index":4,"cost":[100.0,0.0],"qmax":0.5,"gen_status":1,"qmin":-0.4,"qc1min":0.0,"qc2min":0.0,"pc1":0.0,"ramp_q":0.0,"ramp_30":0.0,"pmin":0.4,"apf":0.0},"1":{"ncost":2,"qc1max":0.0,"pg":0.0,"model":2,"shutdown":0.0,"startup":0.0,"qc2max":0.0,"ramp_agc":0.0,"qg":0.3714,"gen_bus":8,"pmax":0.0,"ramp_10":0.0,"vg":1.01,"mbase":100.0,"source_id":["gen",4],"pc2":0.0,"index":1,"cost":[100.0,0.0],"qmax":0.4,"gen_status":1,"qmin":-0.1,"qc1min":0.0,"qc2min":0.0,"pc1":0.0,"ramp_q":0.0,"ramp_30":0.0,"pmin":0.0,"apf":0.0},"5":{"ncost":2,"qc1max":0.0,"pg":0.0,"model":2,"shutdown":0.0,"startup":0.0,"qc2max":0.0,"ramp_agc":0.0,"qg":0.10619999999999999,"gen_bus":13,"pmax":0.0,"ramp_10":0.0,"vg":1.071,"mbase":100.0,"source_id":["gen",6],"pc2":0.0,"index":5,"cost":[100.0,0.0],"qmax":0.24,"gen_status":1,"qmin":-0.06,"qc1min":0.0,"qc2min":0.0,"pc1":0.0,"ramp_q":0.0,"ramp_30":0.0,"pmin":0.0,"apf":0.0},"2":{"ncost":2,"qc1max":0.0,"pg":2.6094999999999997,"model":2,"shutdown":0.0,"startup":0.0,"qc2max":0.0,"ramp_agc":0.0,"qg":-0.1679,"gen_bus":1,"pmax":100.0,"ramp_10":0.0,"vg":1.06,"mbase":100.0,"source_id":["gen",1],"pc2":0.0,"index":2,"cost":[100.0,0.0],"qmax":0.0,"gen_status":1,"qmin":0.0,"qc1min":0.0,"qc2min":0.0,"pc1":0.0,"ramp_q":0.0,"ramp_30":0.0,"pmin":-100.0,"apf":0.0},"6":{"ncost":2,"qc1max":0.0,"pg":0.0,"model":2,"shutdown":0.0,"startup":0.0,"qc2max":0.0,"ramp_agc":0.0,"qg":0.3685,"gen_bus":5,"pmax":0.0,"ramp_10":0.0,"vg":1.01,"mbase":100.0,"source_id":["gen",3],"pc2":0.0,"index":6,"cost":[100.0,0.0],"qmax":0.4,"gen_status":1,"qmin":-0.4,"qc1min":0.0,"qc2min":0.0,"pc1":0.0,"ramp_q":0.0,"ramp_30":0.0,"pmin":0.0,"apf":0.0},"3":{"ncost":2,"qc1max":0.0,"pg":0.0,"model":2,"shutdown":0.0,"startup":0.0,"qc2max":0.0,"ramp_agc":0.0,"qg":0.1617,"gen_bus":11,"pmax":0.0,"ramp_10":0.0,"vg":1.082,"mbase":100.0,"source_id":["gen",5],"pc2":0.0,"index":3,"cost":[100.0,0.0],"qmax":0.24,"gen_status":1,"qmin":-0.06,"qc1min":0.0,"qc2min":0.0,"pc1":0.0,"ramp_q":0.0,"ramp_30":0.0,"pmin":0.0,"apf":0.0}},"branch":{"24":{"br_r":0.0662,"rate_a":0.32,"shift":0.0,"pt":-0.17679999999999998,"br_x":0.1304,"g_to":0.0,"g_fr":0.0,"source_id":["branch",24],"b_fr":0.0,"f_bus":12,"br_status":1,"t_bus":15,"b_to":0.0,"index":24,"qf":0.068,"angmin":-1.0472,"angmax":1.0472,"qt":-0.0637,"transformer":false,"tap":1.0,"pf":0.179},"4":{"br_r":0.0472,"rate_a":1.3,"shift":0.0,"pt":-0.7943000000000001,"br_x":0.1983,"g_to":0.0,"g_fr":0.0,"source_id":["branch",4],"b_fr":0.0209,"f_bus":2,"br_status":1,"t_bus":5,"b_to":0.0209,"index":4,"qf":0.0182,"angmin":-1.0472,"angmax":1.0472,"qt":0.0617,"transformer":false,"tap":1.0,"pf":0.8238},"1":{"br_r":0.0192,"rate_a":1.3,"shift":0.0,"pt":-1.6804,"br_x":0.0575,"g_to":0.0,"g_fr":0.0,"source_id":["branch",1],"b_fr":0.0264,"f_bus":1,"br_status":1,"t_bus":2,"b_to":0.0264,"index":1,"qf":-0.2133,"angmin":-1.0472,"angmax":1.0472,"qt":0.3102,"transformer":false,"tap":1.0,"pf":1.7323},"12":{"br_r":0.0,"rate_a":0.65,"shift":0.0,"pt":-0.2772,"br_x":0.208,"g_to":0.0,"g_fr":0.0,"source_id":["branch",12],"b_fr":0.0,"f_bus":6,"br_status":1,"t_bus":9,"b_to":0.0,"index":12,"qf":-0.0817,"angmin":-1.0472,"angmax":1.0472,"qt":0.098,"transformer":true,"tap":0.978,"pf":0.2772},"29":{"br_r":0.0524,"rate_a":0.16,"shift":0.0,"pt":-0.0369,"br_x":0.1923,"g_to":0.0,"g_fr":0.0,"source_id":["branch",29],"b_fr":0.0,"f_bus":16,"br_status":1,"t_bus":17,"b_to":0.0,"index":29,"qf":0.0144,"angmin":-1.0472,"angmax":1.0472,"qt":-0.0141,"transformer":false,"tap":1.0,"pf":0.0369},"20":{"br_r":0.0348,"shift":0.0,"pt":-0.1567,"br_x":0.0749,"g_to":0.0,"g_fr":0.0,"source_id":["branch",20],"b_fr":0.0,"f_bus":10,"br_status":1,"t_bus":21,"b_to":0.0,"index":20,"qf":0.1001,"angmin":-1.0472,"angmax":1.0472,"qt":-0.0977,"transformer":false,"tap":1.0,"pf":0.15789999999999998},"32":{"br_r":0.0116,"shift":0.0,"pt":0.0183,"br_x":0.0236,"g_to":0.0,"g_fr":0.0,"source_id":["branch",32],"b_fr":0.0,"f_bus":21,"br_status":1,"t_bus":22,"b_to":0.0,"index":32,"qf":-0.0143,"angmin":-1.0472,"angmax":1.0472,"qt":0.0143,"transformer":false,"tap":1.0,"pf":-0.0183},"2":{"br_r":0.0452,"rate_a":1.3,"shift":0.0,"pt":-0.8461,"br_x":0.1652,"g_to":0.0,"g_fr":0.0,"source_id":["branch",2],"b_fr":0.0204,"f_bus":1,"br_status":1,"t_bus":3,"b_to":0.0204,"index":2,"qf":0.0455,"angmin":-1.0472,"angmax":1.0472,"qt":0.0242,"transformer":false,"tap":1.0,"pf":0.8772},"6":{"br_r":0.0132,"rate_a":1.3,"shift":0.0,"pt":-0.8134999999999999,"br_x":0.0379,"g_to":0.0,"g_fr":0.0,"source_id":["branch",6],"b_fr":0.0042,"f_bus":3,"br_status":1,"t_bus":4,"b_to":0.0042,"index":6,"qf":-0.0362,"angmin":-1.0472,"angmax":1.0472,"qt":0.0521,"transformer":false,"tap":1.0,"pf":0.8220999999999999},"25":{"br_r":0.0945,"rate_a":0.16,"shift":0.0,"pt":-0.0719,"br_x":0.1987,"g_to":0.0,"g_fr":0.0,"source_id":["branch",25],"b_fr":0.0,"f_bus":12,"br_status":1,"t_bus":16,"b_to":0.0,"index":25,"qf":0.0335,"angmin":-1.0472,"angmax":1.0472,"qt":-0.032400000000000005,"transformer":false,"tap":1.0,"pf":0.0725},"23":{"br_r":0.1231,"shift":0.0,"pt":-0.07780000000000001,"br_x":0.2559,"g_to":0.0,"g_fr":0.0,"source_id":["branch",23],"b_fr":0.0,"f_bus":12,"br_status":1,"t_bus":14,"b_to":0.0,"index":23,"qf":0.024,"angmin":-1.0472,"angmax":1.0472,"qt":-0.0225,"transformer":false,"tap":1.0,"pf":0.0786},"22":{"br_r":0.0,"rate_a":0.65,"shift":0.0,"pt":0.0,"br_x":0.14,"g_to":0.0,"g_fr":0.0,"source_id":["branch",22],"b_fr":0.0,"f_bus":12,"br_status":1,"t_bus":13,"b_to":0.0,"index":22,"qf":-0.1048,"angmin":-1.0472,"angmax":1.0472,"qt":0.10619999999999999,"transformer":false,"tap":1.0,"pf":-0.0},"11":{"br_r":0.012,"rate_a":0.32,"shift":0.0,"pt":-0.29460000000000003,"br_x":0.042,"g_to":0.0,"g_fr":0.0,"source_id":["branch",11],"b_fr":0.0045,"f_bus":6,"br_status":1,"t_bus":8,"b_to":0.0045,"index":11,"qf":-0.0808,"angmin":-1.0472,"angmax":1.0472,"qt":0.0755,"transformer":false,"tap":1.0,"pf":0.2957},"35":{"br_r":0.1885,"shift":0.0,"pt":0.0121,"br_x":0.3292,"g_to":0.0,"g_fr":0.0,"source_id":["branch",35],"b_fr":0.0,"f_bus":24,"br_status":1,"t_bus":25,"b_to":0.0,"index":35,"qf":0.0202,"angmin":-1.0472,"angmax":1.0472,"qt":-0.02,"transformer":false,"tap":1.0,"pf":-0.012},"13":{"br_r":0.0,"rate_a":0.32,"shift":0.0,"pt":-0.15839999999999999,"br_x":0.556,"g_to":0.0,"g_fr":0.0,"source_id":["branch",13],"b_fr":0.0,"f_bus":6,"br_status":1,"t_bus":10,"b_to":0.0,"index":13,"qf":0.0016,"angmin":-1.0472,"angmax":1.0472,"qt":0.011200000000000002,"transformer":true,"tap":0.969,"pf":0.15839999999999999},"41":{"br_r":0.2399,"shift":0.0,"pt":-0.036699999999999997,"br_x":0.4533,"g_to":0.0,"g_fr":0.0,"source_id":["branch",41],"b_fr":0.0,"f_bus":29,"br_status":1,"t_bus":30,"b_to":0.0,"index":41,"qf":0.0060999999999999995,"angmin":-1.0472,"angmax":1.0472,"qt":-0.0054,"transformer":false,"tap":1.0,"pf":0.037000000000000005},"5":{"br_r":0.0581,"rate_a":0.65,"shift":0.0,"pt":-0.5839,"br_x":0.1763,"g_to":0.0,"g_fr":0.0,"source_id":["branch",5],"b_fr":0.0187,"f_bus":2,"br_status":1,"t_bus":6,"b_to":0.0187,"index":5,"qf":0.005,"angmin":-1.0472,"angmax":1.0472,"qt":0.0146,"transformer":false,"tap":1.0,"pf":0.6034},"15":{"br_r":0.0636,"shift":0.0,"pt":0.0054,"br_x":0.2,"g_to":0.0,"g_fr":0.0,"source_id":["branch",15],"b_fr":0.0214,"f_bus":8,"br_status":1,"t_bus":28,"b_to":0.0214,"index":15,"qf":-0.004,"angmin":-1.0472,"angmax":1.0472,"qt":-0.0394,"transformer":false,"tap":1.0,"pf":-0.0054},"27":{"br_r":0.1073,"rate_a":0.16,"shift":0.0,"pt":-0.059800000000000006,"br_x":0.2185,"g_to":0.0,"g_fr":0.0,"source_id":["branch",27],"b_fr":0.0,"f_bus":15,"br_status":1,"t_bus":18,"b_to":0.0,"index":27,"qf":0.016,"angmin":-1.0472,"angmax":1.0472,"qt":-0.0152,"transformer":false,"tap":1.0,"pf":0.0602},"31":{"br_r":0.034,"rate_a":0.16,"shift":0.0,"pt":0.0674,"br_x":0.068,"g_to":0.0,"g_fr":0.0,"source_id":["branch",31],"b_fr":0.0,"f_bus":19,"br_status":1,"t_bus":20,"b_to":0.0,"index":31,"qf":-0.0279,"angmin":-1.0472,"angmax":1.0472,"qt":0.028300000000000002,"transformer":false,"tap":1.0,"pf":-0.0672},"33":{"br_r":0.115,"shift":0.0,"pt":-0.056900000000000006,"br_x":0.179,"g_to":0.0,"g_fr":0.0,"source_id":["branch",33],"b_fr":0.0,"f_bus":22,"br_status":1,"t_bus":24,"b_to":0.0,"index":33,"qf":0.030600000000000002,"angmin":-1.0472,"angmax":1.0472,"qt":-0.029900000000000003,"transformer":false,"tap":1.0,"pf":0.0574},"28":{"br_r":0.1,"shift":0.0,"pt":-0.0501,"br_x":0.202,"g_to":0.0,"g_fr":0.0,"source_id":["branch",28],"b_fr":0.0,"f_bus":15,"br_status":1,"t_bus":23,"b_to":0.0,"index":28,"qf":0.0291,"angmin":-1.0472,"angmax":1.0472,"qt":-0.0285,"transformer":false,"tap":1.0,"pf":0.0504},"16":{"br_r":0.0,"shift":0.0,"pt":-0.2772,"br_x":0.11,"g_to":0.0,"g_fr":0.0,"source_id":["branch",16],"b_fr":0.0,"f_bus":9,"br_status":1,"t_bus":10,"b_to":0.0,"index":16,"qf":0.0591,"angmin":-1.0472,"angmax":1.0472,"qt":-0.051100000000000007,"transformer":false,"tap":1.0,"pf":0.2772},"14":{"br_r":0.0169,"shift":0.0,"pt":-0.1861,"br_x":0.0599,"g_to":0.0,"g_fr":0.0,"source_id":["branch",14],"b_fr":0.0065,"f_bus":6,"br_status":1,"t_bus":28,"b_to":0.0065,"index":14,"qf":-0.0003,"angmin":-1.0472,"angmax":1.0472,"qt":-0.0109,"transformer":false,"tap":1.0,"pf":0.1867},"39":{"br_r":0.2198,"shift":0.0,"pt":-0.061,"br_x":0.4153,"g_to":0.0,"g_fr":0.0,"source_id":["branch",39],"b_fr":0.0,"f_bus":27,"br_status":1,"t_bus":29,"b_to":0.0,"index":39,"qf":0.0167,"angmin":-1.0472,"angmax":1.0472,"qt":-0.0151,"transformer":false,"tap":1.0,"pf":0.061900000000000004},"40":{"br_r":0.3202,"shift":0.0,"pt":-0.0693,"br_x":0.6027,"g_to":0.0,"g_fr":0.0,"source_id":["branch",40],"b_fr":0.0,"f_bus":27,"br_status":1,"t_bus":30,"b_to":0.0,"index":40,"qf":0.0166,"angmin":-1.0472,"angmax":1.0472,"qt":-0.013600000000000001,"transformer":false,"tap":1.0,"pf":0.0709},"21":{"br_r":0.0727,"shift":0.0,"pt":-0.0757,"br_x":0.1499,"g_to":0.0,"g_fr":0.0,"source_id":["branch",21],"b_fr":0.0,"f_bus":10,"br_status":1,"t_bus":22,"b_to":0.0,"index":21,"qf":0.046,"angmin":-1.0472,"angmax":1.0472,"qt":-0.0449,"transformer":false,"tap":1.0,"pf":0.0762},"38":{"br_r":0.0,"shift":0.0,"pt":-0.18059999999999998,"br_x":0.396,"g_to":0.0,"g_fr":0.0,"source_id":["branch",38],"b_fr":0.0,"f_bus":28,"br_status":1,"t_bus":27,"b_to":0.0,"index":38,"qf":0.050300000000000004,"angmin":-1.0472,"angmax":1.0472,"qt":-0.0375,"transformer":true,"tap":0.968,"pf":0.18059999999999998},"7":{"br_r":0.0119,"rate_a":0.9,"shift":0.0,"pt":-0.7152,"br_x":0.0414,"g_to":0.0,"g_fr":0.0,"source_id":["branch",7],"b_fr":0.0045,"f_bus":4,"br_status":1,"t_bus":6,"b_to":0.0045,"index":7,"qf":-0.1632,"angmin":-1.0472,"angmax":1.0472,"qt":0.1761,"transformer":false,"tap":1.0,"pf":0.7215},"34":{"br_r":0.132,"shift":0.0,"pt":-0.018000000000000002,"br_x":0.27,"g_to":0.0,"g_fr":0.0,"source_id":["branch",34],"b_fr":0.0,"f_bus":23,"br_status":1,"t_bus":24,"b_to":0.0,"index":34,"qf":0.0125,"angmin":-1.0472,"angmax":1.0472,"qt":-0.0124,"transformer":false,"tap":1.0,"pf":0.0181},"8":{"br_r":0.0,"rate_a":0.65,"shift":0.0,"pt":-0.4421,"br_x":0.256,"g_to":0.0,"g_fr":0.0,"source_id":["branch",8],"b_fr":0.0,"f_bus":4,"br_status":1,"t_bus":12,"b_to":0.0,"index":8,"qf":0.1426,"angmin":-1.0472,"angmax":1.0472,"qt":-0.09570000000000001,"transformer":true,"tap":0.932,"pf":0.4421},"36":{"br_r":0.2544,"shift":0.0,"pt":-0.035,"br_x":0.38,"g_to":0.0,"g_fr":0.0,"source_id":["branch",36],"b_fr":0.0,"f_bus":25,"br_status":1,"t_bus":26,"b_to":0.0,"index":36,"qf":0.023700000000000002,"angmin":-1.0472,"angmax":1.0472,"qt":-0.023,"transformer":false,"tap":1.0,"pf":0.0354},"26":{"br_r":0.221,"rate_a":0.16,"shift":0.0,"pt":-0.0158,"br_x":0.1997,"g_to":0.0,"g_fr":0.0,"source_id":["branch",26],"b_fr":0.0,"f_bus":14,"br_status":1,"t_bus":15,"b_to":0.0,"index":26,"qf":0.006500000000000001,"angmin":-1.0472,"angmax":1.0472,"qt":-0.0064,"transformer":false,"tap":1.0,"pf":0.0158},"17":{"br_r":0.0,"rate_a":0.65,"shift":0.0,"pt":0.0,"br_x":0.208,"g_to":0.0,"g_fr":0.0,"source_id":["branch",17],"b_fr":0.0,"f_bus":9,"br_status":1,"t_bus":11,"b_to":0.0,"index":17,"qf":-0.15710000000000002,"angmin":-1.0472,"angmax":1.0472,"qt":0.1617,"transformer":false,"tap":1.0,"pf":-0.0},"10":{"br_r":0.0267,"rate_a":1.3,"shift":0.0,"pt":-0.3774,"br_x":0.082,"g_to":0.0,"g_fr":0.0,"source_id":["branch",10],"b_fr":0.0085,"f_bus":6,"br_status":1,"t_bus":7,"b_to":0.0085,"index":10,"qf":-0.0296,"angmin":-1.0472,"angmax":1.0472,"qt":0.0241,"transformer":false,"tap":1.0,"pf":0.3812},"19":{"br_r":0.0936,"rate_a":0.32,"shift":0.0,"pt":-0.0894,"br_x":0.209,"g_to":0.0,"g_fr":0.0,"source_id":["branch",19],"b_fr":0.0,"f_bus":10,"br_status":1,"t_bus":20,"b_to":0.0,"index":19,"qf":0.0371,"angmin":-1.0472,"angmax":1.0472,"qt":-0.0353,"transformer":false,"tap":1.0,"pf":0.0902},"37":{"br_r":0.1093,"shift":0.0,"pt":0.0478,"br_x":0.2087,"g_to":0.0,"g_fr":0.0,"source_id":["branch",37],"b_fr":0.0,"f_bus":25,"br_status":1,"t_bus":27,"b_to":0.0,"index":37,"qf":-0.0037,"angmin":-1.0472,"angmax":1.0472,"qt":0.0040999999999999995,"transformer":false,"tap":1.0,"pf":-0.047599999999999996},"9":{"br_r":0.046,"rate_a":0.7,"shift":0.0,"pt":0.1494,"br_x":0.116,"g_to":0.0,"g_fr":0.0,"source_id":["branch",9],"b_fr":0.0102,"f_bus":5,"br_status":1,"t_bus":7,"b_to":0.0102,"index":9,"qf":0.1168,"angmin":-1.0472,"angmax":1.0472,"qt":-0.1331,"transformer":false,"tap":1.0,"pf":-0.1477},"18":{"br_r":0.0324,"shift":0.0,"pt":-0.053099999999999994,"br_x":0.0845,"g_to":0.0,"g_fr":0.0,"source_id":["branch",18],"b_fr":0.0,"f_bus":10,"br_status":1,"t_bus":17,"b_to":0.0,"index":18,"qf":0.044199999999999996,"angmin":-1.0472,"angmax":1.0472,"qt":-0.043899999999999995,"transformer":false,"tap":1.0,"pf":0.0533},"30":{"br_r":0.0639,"rate_a":0.16,"shift":0.0,"pt":-0.0278,"br_x":0.1292,"g_to":0.0,"g_fr":0.0,"source_id":["branch",30],"b_fr":0.0,"f_bus":18,"br_status":1,"t_bus":19,"b_to":0.0,"index":30,"qf":0.0062,"angmin":-1.0472,"angmax":1.0472,"qt":-0.0060999999999999995,"transformer":false,"tap":1.0,"pf":0.0278},"3":{"br_r":0.057,"rate_a":0.65,"shift":0.0,"pt":-0.4261,"br_x":0.1737,"g_to":0.0,"g_fr":0.0,"source_id":["branch",3],"b_fr":0.0184,"f_bus":2,"br_status":1,"t_bus":4,"b_to":0.0184,"index":3,"qf":0.0395,"angmin":-1.0472,"angmax":1.0472,"qt":-0.047400000000000005,"transformer":false,"tap":1.0,"pf":0.4362}},"storage":{},"switch":{},"baseMVA":100.0,"genfuel":{"4":{"source_id":["genfuel",2],"col_1":"unknown","index":2},"1":{"source_id":["genfuel",4],"col_1":"unknown","index":4},"5":{"source_id":["genfuel",6],"col_1":"unknown","index":6},"2":{"source_id":["genfuel",1],"col_1":"unknown","index":1},"6":{"source_id":["genfuel",3],"col_1":"unknown","index":3},"3":{"source_id":["genfuel",5],"col_1":"unknown","index":5}},"gentype":{"4":{"source_id":["gentype",2],"col_1":"UN","index":2},"1":{"source_id":["gentype",4],"col_1":"UN","index":4},"5":{"source_id":["gentype",6],"col_1":"UN","index":6},"2":{"source_id":["gentype",1],"col_1":"UN","index":1},"6":{"source_id":["gentype",3],"col_1":"UN","index":3},"3":{"source_id":["gentype",5],"col_1":"UN","index":5}},"per_unit":true,"shunt":{"1":{"source_id":["bus",10],"shunt_bus":10,"status":1,"gs":0.0,"bs":0.19,"index":1},"2":{"source_id":["bus",24],"shunt_bus":24,"status":1,"gs":0.0,"bs":0.043,"index":2}},"load":{"4":{"source_id":["bus",5],"load_bus":5,"status":1,"qd":0.19,"pd":0.9420000000000001,"index":4},"1":{"source_id":["bus",2],"load_bus":2,"status":1,"qd":0.127,"pd":0.217,"index":1},"12":{"source_id":["bus",17],"load_bus":17,"status":1,"qd":0.057999999999999996,"pd":0.09,"index":12},"20":{"source_id":["bus",29],"load_bus":29,"status":1,"qd":0.009000000000000001,"pd":0.024,"index":20},"2":{"source_id":["bus",3],"load_bus":3,"status":1,"qd":0.012,"pd":0.024,"index":2},"6":{"source_id":["bus",8],"load_bus":8,"status":1,"qd":0.3,"pd":0.3,"index":6},"11":{"source_id":["bus",16],"load_bus":16,"status":1,"qd":0.018000000000000002,"pd":0.035,"index":11},"13":{"source_id":["bus",18],"load_bus":18,"status":1,"qd":0.009000000000000001,"pd":0.032,"index":13},"5":{"source_id":["bus",7],"load_bus":7,"status":1,"qd":0.109,"pd":0.228,"index":5},"15":{"source_id":["bus",20],"load_bus":20,"status":1,"qd":0.006999999999999999,"pd":0.022000000000000002,"index":15},"16":{"source_id":["bus",21],"load_bus":21,"status":1,"qd":0.11199999999999999,"pd":0.175,"index":16},"14":{"source_id":["bus",19],"load_bus":19,"status":1,"qd":0.034,"pd":0.095,"index":14},"21":{"source_id":["bus",30],"load_bus":30,"status":1,"qd":0.019,"pd":0.106,"index":21},"7":{"source_id":["bus",10],"load_bus":10,"status":1,"qd":0.02,"pd":0.057999999999999996,"index":7},"8":{"source_id":["bus",12],"load_bus":12,"status":1,"qd":0.075,"pd":0.11199999999999999,"index":8},"17":{"source_id":["bus",23],"load_bus":23,"status":1,"qd":0.016,"pd":0.032,"index":17},"10":{"source_id":["bus",15],"load_bus":15,"status":1,"qd":0.025,"pd":0.08199999999999999,"index":10},"19":{"source_id":["bus",26],"load_bus":26,"status":1,"qd":0.023,"pd":0.035,"index":19},"9":{"source_id":["bus",14],"load_bus":14,"status":1,"qd":0.016,"pd":0.062,"index":9},"18":{"source_id":["bus",24],"load_bus":24,"status":1,"qd":0.067,"pd":0.087,"index":18},"3":{"source_id":["bus",4],"load_bus":4,"status":1,"qd":0.016,"pd":0.076,"index":3}}},"system":{"bus":{"24":{"source_id":["bus",24],"zone":1,"area":1,"vmin":0.9,"bus_i":24,"index":24,"bus_type":1,"va":1.4300698532479406,"name":"Bus 24","vm":1.0215836,"vmax":1.1,"base_kv":33.0},"4":{"source_id":["bus",4],"zone":1,"area":1,"vmin":0.9,"bus_i":4,"index":4,"bus_type":1,"va":1.5559174821881074,"name":"Hancock","vm":1.0117647,"vmax":1.1,"base_kv":132.0},"1":{"source_id":["bus",1],"zone":1,"area":1,"vmin":0.9,"bus_i":1,"index":1,"bus_type":3,"va":1.717955420739588,"name":"Glen Lyn","vm":1.0599999,"vmax":1.1,"base_kv":132.0},"12":{"source_id":["bus",12],"zone":1,"area":1,"vmin":0.9,"bus_i":12,"index":12,"bus_type":1,"va":1.4571458440658296,"name":"Hancock","vm":1.0571196,"vmax":1.1,"base_kv":33.0},"29":{"source_id":["bus",29],"zone":1,"area":1,"vmin":0.9,"bus_i":29,"index":29,"bus_type":1,"va":1.4252233357145403,"name":"Bus 29","vm":1.0034104,"vmax":1.1,"base_kv":33.0},"20":{"source_id":["bus",20],"zone":1,"area":1,"vmin":0.9,"bus_i":20,"index":20,"bus_type":1,"va":1.4296471694096928,"name":"Bus 20","vm":1.029738,"vmax":1.1,"base_kv":33.0},"2":{"source_id":["bus",2],"zone":1,"area":1,"vmin":0.9,"bus_i":2,"index":2,"bus_type":2,"va":1.6245489247379403,"name":"Claytor","vm":1.0431345,"vmax":1.1,"base_kv":132.0},"6":{"source_id":["bus",6],"zone":1,"area":1,"vmin":0.9,"bus_i":6,"index":6,"bus_type":1,"va":1.524841807589886,"name":"Roanoke","vm":1.0102573,"vmax":1.1,"base_kv":132.0},"25":{"source_id":["bus",25],"zone":1,"area":1,"vmin":0.9,"bus_i":25,"index":25,"bus_type":1,"va":1.4375375935184487,"name":"Bus 25","vm":1.0173382,"vmax":1.1,"base_kv":33.0},"23":{"source_id":["bus",23],"zone":1,"area":1,"vmin":0.9,"bus_i":23,"index":23,"bus_type":1,"va":1.4331517730944046,"name":"Bus 23","vm":1.0271824,"vmax":1.1,"base_kv":33.0},"22":{"source_id":["bus",22],"zone":1,"area":1,"vmin":0.9,"bus_i":22,"index":22,"bus_type":1,"va":1.436466816569058,"name":"Bus 22","vm":1.033258,"vmax":1.1,"base_kv":33.0},"11":{"source_id":["bus",11],"zone":1,"area":1,"vmin":0.9,"bus_i":11,"index":11,"bus_type":2,"va":1.4717085222786197,"name":"Roanoke","vm":1.082,"vmax":1.1,"base_kv":11.0},"13":{"source_id":["bus",13],"zone":1,"area":1,"vmin":0.9,"bus_i":13,"index":13,"bus_type":2,"va":1.4571458789724145,"name":"Hancock","vm":1.071,"vmax":1.1,"base_kv":11.0},"5":{"source_id":["bus",5],"zone":1,"area":1,"vmin":0.9,"bus_i":5,"index":5,"bus_type":2,"va":1.470716372412031,"name":"Fieldale","vm":1.01,"vmax":1.1,"base_kv":132.0},"15":{"source_id":["bus",15],"zone":1,"area":1,"vmin":0.9,"bus_i":15,"index":15,"bus_type":1,"va":1.4399705475891438,"name":"Bus 15","vm":1.0376827,"vmax":1.1,"base_kv":33.0},"27":{"source_id":["bus",27],"zone":1,"area":1,"vmin":0.9,"bus_i":27,"index":27,"bus_type":1,"va":1.4466898732231042,"name":"Cloverdl","vm":1.0232493,"vmax":1.1,"base_kv":33.0},"28":{"source_id":["bus",28],"zone":1,"area":1,"vmin":0.9,"bus_i":28,"index":28,"bus_type":1,"va":1.513954635702163,"name":"Cloverdl","vm":1.0068172,"vmax":1.1,"base_kv":132.0},"16":{"source_id":["bus",16],"zone":1,"area":1,"vmin":0.9,"bus_i":16,"index":16,"bus_type":1,"va":1.4469700509279269,"name":"Bus 16","vm":1.0443903,"vmax":1.1,"base_kv":33.0},"14":{"source_id":["bus",14],"zone":1,"area":1,"vmin":0.9,"bus_i":14,"index":14,"bus_type":1,"va":1.4415750636770872,"name":"Bus 14","vm":1.0422808,"vmax":1.1,"base_kv":33.0},"21":{"source_id":["bus",21],"zone":1,"area":1,"vmin":0.9,"bus_i":21,"index":21,"bus_type":1,"va":1.4362183514967437,"name":"Bus 21","vm":1.0327267,"vmax":1.1,"base_kv":33.0},"7":{"source_id":["bus",7],"zone":1,"area":1,"vmin":0.9,"bus_i":7,"index":7,"bus_type":1,"va":1.4934170671412654,"name":"Blaine","vm":1.0023772,"vmax":1.1,"base_kv":132.0},"8":{"source_id":["bus",8],"zone":1,"area":1,"vmin":0.9,"bus_i":8,"index":8,"bus_type":2,"va":1.5117746321999594,"name":"Reusens","vm":1.01,"vmax":1.1,"base_kv":132.0},"26":{"source_id":["bus",26],"zone":1,"area":1,"vmin":0.9,"bus_i":26,"index":26,"bus_type":1,"va":1.4302131971394068,"name":"Bus 26","vm":0.9996609,"vmax":1.1,"base_kv":33.0},"17":{"source_id":["bus",17],"zone":1,"area":1,"vmin":0.9,"bus_i":17,"index":17,"bus_type":1,"va":1.4411226045218004,"name":"Bus 17","vm":1.0399026,"vmax":1.1,"base_kv":33.0},"10":{"source_id":["bus",10],"zone":1,"area":1,"vmin":0.9,"bus_i":10,"index":10,"bus_type":1,"va":1.4439451509881254,"name":"Roanoke","vm":1.0451273,"vmax":1.1,"base_kv":33.0},"19":{"source_id":["bus",19],"zone":1,"area":1,"vmin":0.9,"bus_i":19,"index":19,"bus_type":1,"va":1.4262165327786802,"name":"Bus 19","vm":1.0256524,"vmax":1.1,"base_kv":33.0},"9":{"source_id":["bus",9],"zone":1,"area":1,"vmin":0.9,"bus_i":9,"index":9,"bus_type":1,"va":1.4717084873720347,"name":"Roanoke","vm":1.0509123,"vmax":1.1,"base_kv":1.0},"18":{"source_id":["bus",18],"zone":1,"area":1,"vmin":0.9,"bus_i":18,"index":18,"bus_type":1,"va":1.429248798007925,"name":"Bus 18","vm":1.0281536,"vmax":1.1,"base_kv":33.0},"30":{"source_id":["bus",30],"zone":1,"area":1,"vmin":0.9,"bus_i":30,"index":30,"bus_type":1,"va":1.4098151327456212,"name":"Bus 30","vm":0.9919358,"vmax":1.1,"base_kv":33.0},"3":{"source_id":["bus",3],"zone":1,"area":1,"vmin":0.9,"bus_i":3,"index":3,"bus_type":1,"va":1.5864975879985177,"name":"Kumis","vm":1.0207417,"vmax":1.1,"base_kv":132.0}},"source_type":"matpower","name":"IEEE 30 bus","dcline":{},"source_version":"2","gen":{"4":{"ncost":2,"qc1max":0.0,"pg":0.4,"model":2,"shutdown":0.0,"startup":0.0,"qc2max":0.0,"ramp_agc":0.0,"qg":0.5,"gen_bus":2,"pmax":0.4,"ramp_10":0.0,"vg":1.045,"mbase":100.0,"source_id":["gen",2],"pc2":0.0,"index":4,"cost":[100.0,0.0],"qmax":0.5,"gen_status":1,"qmin":-0.4,"qc1min":0.0,"qc2min":0.0,"pc1":0.0,"ramp_q":0.0,"ramp_30":0.0,"pmin":0.4,"apf":0.0},"1":{"ncost":2,"qc1max":0.0,"pg":0.0,"model":2,"shutdown":0.0,"startup":0.0,"qc2max":0.0,"ramp_agc":0.0,"qg":0.3714,"gen_bus":8,"pmax":0.0,"ramp_10":0.0,"vg":1.01,"mbase":100.0,"source_id":["gen",4],"pc2":0.0,"index":1,"cost":[100.0,0.0],"qmax":0.4,"gen_status":1,"qmin":-0.1,"qc1min":0.0,"qc2min":0.0,"pc1":0.0,"ramp_q":0.0,"ramp_30":0.0,"pmin":0.0,"apf":0.0},"5":{"ncost":2,"qc1max":0.0,"pg":0.0,"model":2,"shutdown":0.0,"startup":0.0,"qc2max":0.0,"ramp_agc":0.0,"qg":0.10619999999999999,"gen_bus":13,"pmax":0.0,"ramp_10":0.0,"vg":1.071,"mbase":100.0,"source_id":["gen",6],"pc2":0.0,"index":5,"cost":[100.0,0.0],"qmax":0.24,"gen_status":1,"qmin":-0.06,"qc1min":0.0,"qc2min":0.0,"pc1":0.0,"ramp_q":0.0,"ramp_30":0.0,"pmin":0.0,"apf":0.0},"2":{"ncost":2,"qc1max":0.0,"pg":2.6094999999999997,"model":2,"shutdown":0.0,"startup":0.0,"qc2max":0.0,"ramp_agc":0.0,"qg":-0.1679,"gen_bus":1,"pmax":100.0,"ramp_10":0.0,"vg":1.06,"mbase":100.0,"source_id":["gen",1],"pc2":0.0,"index":2,"cost":[100.0,0.0],"qmax":0.0,"gen_status":1,"qmin":0.0,"qc1min":0.0,"qc2min":0.0,"pc1":0.0,"ramp_q":0.0,"ramp_30":0.0,"pmin":-100.0,"apf":0.0},"6":{"ncost":2,"qc1max":0.0,"pg":0.0,"model":2,"shutdown":0.0,"startup":0.0,"qc2max":0.0,"ramp_agc":0.0,"qg":0.3685,"gen_bus":5,"pmax":0.0,"ramp_10":0.0,"vg":1.01,"mbase":100.0,"source_id":["gen",3],"pc2":0.0,"index":6,"cost":[100.0,0.0],"qmax":0.4,"gen_status":1,"qmin":-0.4,"qc1min":0.0,"qc2min":0.0,"pc1":0.0,"ramp_q":0.0,"ramp_30":0.0,"pmin":0.0,"apf":0.0},"3":{"ncost":2,"qc1max":0.0,"pg":0.0,"model":2,"shutdown":0.0,"startup":0.0,"qc2max":0.0,"ramp_agc":0.0,"qg":0.1617,"gen_bus":11,"pmax":0.0,"ramp_10":0.0,"vg":1.082,"mbase":100.0,"source_id":["gen",5],"pc2":0.0,"index":3,"cost":[100.0,0.0],"qmax":0.24,"gen_status":1,"qmin":-0.06,"qc1min":0.0,"qc2min":0.0,"pc1":0.0,"ramp_q":0.0,"ramp_30":0.0,"pmin":0.0,"apf":0.0}},"branch":{"24":{"br_r":0.0662,"rate_a":0.32,"shift":0.0,"pt":-0.17679999999999998,"br_x":0.1304,"g_to":0.0,"g_fr":0.0,"source_id":["branch",24],"b_fr":0.0,"f_bus":12,"br_status":1,"t_bus":15,"b_to":0.0,"index":24,"qf":0.068,"angmin":-1.0472,"angmax":1.0472,"qt":-0.0637,"transformer":false,"tap":1.0,"pf":0.179},"4":{"br_r":0.0472,"rate_a":1.3,"shift":0.0,"pt":-0.7943000000000001,"br_x":0.1983,"g_to":0.0,"g_fr":0.0,"source_id":["branch",4],"b_fr":0.0209,"f_bus":2,"br_status":1,"t_bus":5,"b_to":0.0209,"index":4,"qf":0.0182,"angmin":-1.0472,"angmax":1.0472,"qt":0.0617,"transformer":false,"tap":1.0,"pf":0.8238},"1":{"br_r":0.0192,"rate_a":1.3,"shift":0.0,"pt":-1.6804,"br_x":0.0575,"g_to":0.0,"g_fr":0.0,"source_id":["branch",1],"b_fr":0.0264,"f_bus":1,"br_status":1,"t_bus":2,"b_to":0.0264,"index":1,"qf":-0.2133,"angmin":-1.0472,"angmax":1.0472,"qt":0.3102,"transformer":false,"tap":1.0,"pf":1.7323},"12":{"br_r":0.0,"rate_a":0.65,"shift":0.0,"pt":-0.2772,"br_x":0.208,"g_to":0.0,"g_fr":0.0,"source_id":["branch",12],"b_fr":0.0,"f_bus":6,"br_status":1,"t_bus":9,"b_to":0.0,"index":12,"qf":-0.0817,"angmin":-1.0472,"angmax":1.0472,"qt":0.098,"transformer":true,"tap":0.978,"pf":0.2772},"29":{"br_r":0.0524,"rate_a":0.16,"shift":0.0,"pt":-0.0369,"br_x":0.1923,"g_to":0.0,"g_fr":0.0,"source_id":["branch",29],"b_fr":0.0,"f_bus":16,"br_status":1,"t_bus":17,"b_to":0.0,"index":29,"qf":0.0144,"angmin":-1.0472,"angmax":1.0472,"qt":-0.0141,"transformer":false,"tap":1.0,"pf":0.0369},"20":{"br_r":0.0348,"shift":0.0,"pt":-0.1567,"br_x":0.0749,"g_to":0.0,"g_fr":0.0,"source_id":["branch",20],"b_fr":0.0,"f_bus":10,"br_status":1,"t_bus":21,"b_to":0.0,"index":20,"qf":0.1001,"angmin":-1.0472,"angmax":1.0472,"qt":-0.0977,"transformer":false,"tap":1.0,"pf":0.15789999999999998},"32":{"br_r":0.0116,"shift":0.0,"pt":0.0183,"br_x":0.0236,"g_to":0.0,"g_fr":0.0,"source_id":["branch",32],"b_fr":0.0,"f_bus":21,"br_status":1,"t_bus":22,"b_to":0.0,"index":32,"qf":-0.0143,"angmin":-1.0472,"angmax":1.0472,"qt":0.0143,"transformer":false,"tap":1.0,"pf":-0.0183},"2":{"br_r":0.0452,"rate_a":1.3,"shift":0.0,"pt":-0.8461,"br_x":0.1652,"g_to":0.0,"g_fr":0.0,"source_id":["branch",2],"b_fr":0.0204,"f_bus":1,"br_status":1,"t_bus":3,"b_to":0.0204,"index":2,"qf":0.0455,"angmin":-1.0472,"angmax":1.0472,"qt":0.0242,"transformer":false,"tap":1.0,"pf":0.8772},"6":{"br_r":0.0132,"rate_a":1.3,"shift":0.0,"pt":-0.8134999999999999,"br_x":0.0379,"g_to":0.0,"g_fr":0.0,"source_id":["branch",6],"b_fr":0.0042,"f_bus":3,"br_status":1,"t_bus":4,"b_to":0.0042,"index":6,"qf":-0.0362,"angmin":-1.0472,"angmax":1.0472,"qt":0.0521,"transformer":false,"tap":1.0,"pf":0.8220999999999999},"25":{"br_r":0.0945,"rate_a":0.16,"shift":0.0,"pt":-0.0719,"br_x":0.1987,"g_to":0.0,"g_fr":0.0,"source_id":["branch",25],"b_fr":0.0,"f_bus":12,"br_status":1,"t_bus":16,"b_to":0.0,"index":25,"qf":0.0335,"angmin":-1.0472,"angmax":1.0472,"qt":-0.032400000000000005,"transformer":false,"tap":1.0,"pf":0.0725},"23":{"br_r":0.1231,"shift":0.0,"pt":-0.07780000000000001,"br_x":0.2559,"g_to":0.0,"g_fr":0.0,"source_id":["branch",23],"b_fr":0.0,"f_bus":12,"br_status":1,"t_bus":14,"b_to":0.0,"index":23,"qf":0.024,"angmin":-1.0472,"angmax":1.0472,"qt":-0.0225,"transformer":false,"tap":1.0,"pf":0.0786},"22":{"br_r":0.0,"rate_a":0.65,"shift":0.0,"pt":0.0,"br_x":0.14,"g_to":0.0,"g_fr":0.0,"source_id":["branch",22],"b_fr":0.0,"f_bus":12,"br_status":1,"t_bus":13,"b_to":0.0,"index":22,"qf":-0.1048,"angmin":-1.0472,"angmax":1.0472,"qt":0.10619999999999999,"transformer":false,"tap":1.0,"pf":-0.0},"11":{"br_r":0.012,"rate_a":0.32,"shift":0.0,"pt":-0.29460000000000003,"br_x":0.042,"g_to":0.0,"g_fr":0.0,"source_id":["branch",11],"b_fr":0.0045,"f_bus":6,"br_status":1,"t_bus":8,"b_to":0.0045,"index":11,"qf":-0.0808,"angmin":-1.0472,"angmax":1.0472,"qt":0.0755,"transformer":false,"tap":1.0,"pf":0.2957},"35":{"br_r":0.1885,"shift":0.0,"pt":0.0121,"br_x":0.3292,"g_to":0.0,"g_fr":0.0,"source_id":["branch",35],"b_fr":0.0,"f_bus":24,"br_status":1,"t_bus":25,"b_to":0.0,"index":35,"qf":0.0202,"angmin":-1.0472,"angmax":1.0472,"qt":-0.02,"transformer":false,"tap":1.0,"pf":-0.012},"13":{"br_r":0.0,"rate_a":0.32,"shift":0.0,"pt":-0.15839999999999999,"br_x":0.556,"g_to":0.0,"g_fr":0.0,"source_id":["branch",13],"b_fr":0.0,"f_bus":6,"br_status":1,"t_bus":10,"b_to":0.0,"index":13,"qf":0.0016,"angmin":-1.0472,"angmax":1.0472,"qt":0.011200000000000002,"transformer":true,"tap":0.969,"pf":0.15839999999999999},"41":{"br_r":0.2399,"shift":0.0,"pt":-0.036699999999999997,"br_x":0.4533,"g_to":0.0,"g_fr":0.0,"source_id":["branch",41],"b_fr":0.0,"f_bus":29,"br_status":1,"t_bus":30,"b_to":0.0,"index":41,"qf":0.0060999999999999995,"angmin":-1.0472,"angmax":1.0472,"qt":-0.0054,"transformer":false,"tap":1.0,"pf":0.037000000000000005},"5":{"br_r":0.0581,"rate_a":0.65,"shift":0.0,"pt":-0.5839,"br_x":0.1763,"g_to":0.0,"g_fr":0.0,"source_id":["branch",5],"b_fr":0.0187,"f_bus":2,"br_status":1,"t_bus":6,"b_to":0.0187,"index":5,"qf":0.005,"angmin":-1.0472,"angmax":1.0472,"qt":0.0146,"transformer":false,"tap":1.0,"pf":0.6034},"15":{"br_r":0.0636,"shift":0.0,"pt":0.0054,"br_x":0.2,"g_to":0.0,"g_fr":0.0,"source_id":["branch",15],"b_fr":0.0214,"f_bus":8,"br_status":1,"t_bus":28,"b_to":0.0214,"index":15,"qf":-0.004,"angmin":-1.0472,"angmax":1.0472,"qt":-0.0394,"transformer":false,"tap":1.0,"pf":-0.0054},"27":{"br_r":0.1073,"rate_a":0.16,"shift":0.0,"pt":-0.059800000000000006,"br_x":0.2185,"g_to":0.0,"g_fr":0.0,"source_id":["branch",27],"b_fr":0.0,"f_bus":15,"br_status":1,"t_bus":18,"b_to":0.0,"index":27,"qf":0.016,"angmin":-1.0472,"angmax":1.0472,"qt":-0.0152,"transformer":false,"tap":1.0,"pf":0.0602},"31":{"br_r":0.034,"rate_a":0.16,"shift":0.0,"pt":0.0674,"br_x":0.068,"g_to":0.0,"g_fr":0.0,"source_id":["branch",31],"b_fr":0.0,"f_bus":19,"br_status":1,"t_bus":20,"b_to":0.0,"index":31,"qf":-0.0279,"angmin":-1.0472,"angmax":1.0472,"qt":0.028300000000000002,"transformer":false,"tap":1.0,"pf":-0.0672},"33":{"br_r":0.115,"shift":0.0,"pt":-0.056900000000000006,"br_x":0.179,"g_to":0.0,"g_fr":0.0,"source_id":["branch",33],"b_fr":0.0,"f_bus":22,"br_status":1,"t_bus":24,"b_to":0.0,"index":33,"qf":0.030600000000000002,"angmin":-1.0472,"angmax":1.0472,"qt":-0.029900000000000003,"transformer":false,"tap":1.0,"pf":0.0574},"28":{"br_r":0.1,"shift":0.0,"pt":-0.0501,"br_x":0.202,"g_to":0.0,"g_fr":0.0,"source_id":["branch",28],"b_fr":0.0,"f_bus":15,"br_status":1,"t_bus":23,"b_to":0.0,"index":28,"qf":0.0291,"angmin":-1.0472,"angmax":1.0472,"qt":-0.0285,"transformer":false,"tap":1.0,"pf":0.0504},"16":{"br_r":0.0,"shift":0.0,"pt":-0.2772,"br_x":0.11,"g_to":0.0,"g_fr":0.0,"source_id":["branch",16],"b_fr":0.0,"f_bus":9,"br_status":1,"t_bus":10,"b_to":0.0,"index":16,"qf":0.0591,"angmin":-1.0472,"angmax":1.0472,"qt":-0.051100000000000007,"transformer":false,"tap":1.0,"pf":0.2772},"14":{"br_r":0.0169,"shift":0.0,"pt":-0.1861,"br_x":0.0599,"g_to":0.0,"g_fr":0.0,"source_id":["branch",14],"b_fr":0.0065,"f_bus":6,"br_status":1,"t_bus":28,"b_to":0.0065,"index":14,"qf":-0.0003,"angmin":-1.0472,"angmax":1.0472,"qt":-0.0109,"transformer":false,"tap":1.0,"pf":0.1867},"39":{"br_r":0.2198,"shift":0.0,"pt":-0.061,"br_x":0.4153,"g_to":0.0,"g_fr":0.0,"source_id":["branch",39],"b_fr":0.0,"f_bus":27,"br_status":1,"t_bus":29,"b_to":0.0,"index":39,"qf":0.0167,"angmin":-1.0472,"angmax":1.0472,"qt":-0.0151,"transformer":false,"tap":1.0,"pf":0.061900000000000004},"40":{"br_r":0.3202,"shift":0.0,"pt":-0.0693,"br_x":0.6027,"g_to":0.0,"g_fr":0.0,"source_id":["branch",40],"b_fr":0.0,"f_bus":27,"br_status":1,"t_bus":30,"b_to":0.0,"index":40,"qf":0.0166,"angmin":-1.0472,"angmax":1.0472,"qt":-0.013600000000000001,"transformer":false,"tap":1.0,"pf":0.0709},"21":{"br_r":0.0727,"shift":0.0,"pt":-0.0757,"br_x":0.1499,"g_to":0.0,"g_fr":0.0,"source_id":["branch",21],"b_fr":0.0,"f_bus":10,"br_status":1,"t_bus":22,"b_to":0.0,"index":21,"qf":0.046,"angmin":-1.0472,"angmax":1.0472,"qt":-0.0449,"transformer":false,"tap":1.0,"pf":0.0762},"38":{"br_r":0.0,"shift":0.0,"pt":-0.18059999999999998,"br_x":0.396,"g_to":0.0,"g_fr":0.0,"source_id":["branch",38],"b_fr":0.0,"f_bus":28,"br_status":1,"t_bus":27,"b_to":0.0,"index":38,"qf":0.050300000000000004,"angmin":-1.0472,"angmax":1.0472,"qt":-0.0375,"transformer":true,"tap":0.968,"pf":0.18059999999999998},"7":{"br_r":0.0119,"rate_a":0.9,"shift":0.0,"pt":-0.7152,"br_x":0.0414,"g_to":0.0,"g_fr":0.0,"source_id":["branch",7],"b_fr":0.0045,"f_bus":4,"br_status":1,"t_bus":6,"b_to":0.0045,"index":7,"qf":-0.1632,"angmin":-1.0472,"angmax":1.0472,"qt":0.1761,"transformer":false,"tap":1.0,"pf":0.7215},"34":{"br_r":0.132,"shift":0.0,"pt":-0.018000000000000002,"br_x":0.27,"g_to":0.0,"g_fr":0.0,"source_id":["branch",34],"b_fr":0.0,"f_bus":23,"br_status":1,"t_bus":24,"b_to":0.0,"index":34,"qf":0.0125,"angmin":-1.0472,"angmax":1.0472,"qt":-0.0124,"transformer":false,"tap":1.0,"pf":0.0181},"8":{"br_r":0.0,"rate_a":0.65,"shift":0.0,"pt":-0.4421,"br_x":0.256,"g_to":0.0,"g_fr":0.0,"source_id":["branch",8],"b_fr":0.0,"f_bus":4,"br_status":1,"t_bus":12,"b_to":0.0,"index":8,"qf":0.1426,"angmin":-1.0472,"angmax":1.0472,"qt":-0.09570000000000001,"transformer":true,"tap":0.932,"pf":0.4421},"36":{"br_r":0.2544,"shift":0.0,"pt":-0.035,"br_x":0.38,"g_to":0.0,"g_fr":0.0,"source_id":["branch",36],"b_fr":0.0,"f_bus":25,"br_status":1,"t_bus":26,"b_to":0.0,"index":36,"qf":0.023700000000000002,"angmin":-1.0472,"angmax":1.0472,"qt":-0.023,"transformer":false,"tap":1.0,"pf":0.0354},"26":{"br_r":0.221,"rate_a":0.16,"shift":0.0,"pt":-0.0158,"br_x":0.1997,"g_to":0.0,"g_fr":0.0,"source_id":["branch",26],"b_fr":0.0,"f_bus":14,"br_status":1,"t_bus":15,"b_to":0.0,"index":26,"qf":0.006500000000000001,"angmin":-1.0472,"angmax":1.0472,"qt":-0.0064,"transformer":false,"tap":1.0,"pf":0.0158},"17":{"br_r":0.0,"rate_a":0.65,"shift":0.0,"pt":0.0,"br_x":0.208,"g_to":0.0,"g_fr":0.0,"source_id":["branch",17],"b_fr":0.0,"f_bus":9,"br_status":1,"t_bus":11,"b_to":0.0,"index":17,"qf":-0.15710000000000002,"angmin":-1.0472,"angmax":1.0472,"qt":0.1617,"transformer":false,"tap":1.0,"pf":-0.0},"10":{"br_r":0.0267,"rate_a":1.3,"shift":0.0,"pt":-0.3774,"br_x":0.082,"g_to":0.0,"g_fr":0.0,"source_id":["branch",10],"b_fr":0.0085,"f_bus":6,"br_status":1,"t_bus":7,"b_to":0.0085,"index":10,"qf":-0.0296,"angmin":-1.0472,"angmax":1.0472,"qt":0.0241,"transformer":false,"tap":1.0,"pf":0.3812},"19":{"br_r":0.0936,"rate_a":0.32,"shift":0.0,"pt":-0.0894,"br_x":0.209,"g_to":0.0,"g_fr":0.0,"source_id":["branch",19],"b_fr":0.0,"f_bus":10,"br_status":1,"t_bus":20,"b_to":0.0,"index":19,"qf":0.0371,"angmin":-1.0472,"angmax":1.0472,"qt":-0.0353,"transformer":false,"tap":1.0,"pf":0.0902},"37":{"br_r":0.1093,"shift":0.0,"pt":0.0478,"br_x":0.2087,"g_to":0.0,"g_fr":0.0,"source_id":["branch",37],"b_fr":0.0,"f_bus":25,"br_status":1,"t_bus":27,"b_to":0.0,"index":37,"qf":-0.0037,"angmin":-1.0472,"angmax":1.0472,"qt":0.0040999999999999995,"transformer":false,"tap":1.0,"pf":-0.047599999999999996},"9":{"br_r":0.046,"rate_a":0.7,"shift":0.0,"pt":0.1494,"br_x":0.116,"g_to":0.0,"g_fr":0.0,"source_id":["branch",9],"b_fr":0.0102,"f_bus":5,"br_status":1,"t_bus":7,"b_to":0.0102,"index":9,"qf":0.1168,"angmin":-1.0472,"angmax":1.0472,"qt":-0.1331,"transformer":false,"tap":1.0,"pf":-0.1477},"18":{"br_r":0.0324,"shift":0.0,"pt":-0.053099999999999994,"br_x":0.0845,"g_to":0.0,"g_fr":0.0,"source_id":["branch",18],"b_fr":0.0,"f_bus":10,"br_status":1,"t_bus":17,"b_to":0.0,"index":18,"qf":0.044199999999999996,"angmin":-1.0472,"angmax":1.0472,"qt":-0.043899999999999995,"transformer":false,"tap":1.0,"pf":0.0533},"30":{"br_r":0.0639,"rate_a":0.16,"shift":0.0,"pt":-0.0278,"br_x":0.1292,"g_to":0.0,"g_fr":0.0,"source_id":["branch",30],"b_fr":0.0,"f_bus":18,"br_status":1,"t_bus":19,"b_to":0.0,"index":30,"qf":0.0062,"angmin":-1.0472,"angmax":1.0472,"qt":-0.0060999999999999995,"transformer":false,"tap":1.0,"pf":0.0278},"3":{"br_r":0.057,"rate_a":0.65,"shift":0.0,"pt":-0.4261,"br_x":0.1737,"g_to":0.0,"g_fr":0.0,"source_id":["branch",3],"b_fr":0.0184,"f_bus":2,"br_status":1,"t_bus":4,"b_to":0.0184,"index":3,"qf":0.0395,"angmin":-1.0472,"angmax":1.0472,"qt":-0.047400000000000005,"transformer":false,"tap":1.0,"pf":0.4362}},"storage":{},"switch":{},"baseMVA":100.0,"genfuel":{"4":{"source_id":["genfuel",2],"col_1":"unknown","index":2},"1":{"source_id":["genfuel",4],"col_1":"unknown","index":4},"5":{"source_id":["genfuel",6],"col_1":"unknown","index":6},"2":{"source_id":["genfuel",1],"col_1":"unknown","index":1},"6":{"source_id":["genfuel",3],"col_1":"unknown","index":3},"3":{"source_id":["genfuel",5],"col_1":"unknown","index":5}},"gentype":{"4":{"source_id":["gentype",2],"col_1":"UN","index":2},"1":{"source_id":["gentype",4],"col_1":"UN","index":4},"5":{"source_id":["gentype",6],"col_1":"UN","index":6},"2":{"source_id":["gentype",1],"col_1":"UN","index":1},"6":{"source_id":["gentype",3],"col_1":"UN","index":3},"3":{"source_id":["gentype",5],"col_1":"UN","index":5}},"per_unit":true,"shunt":{"1":{"source_id":["bus",10],"shunt_bus":10,"status":1,"gs":0.0,"bs":0.19,"index":1},"2":{"source_id":["bus",24],"shunt_bus":24,"status":1,"gs":0.0,"bs":0.043,"index":2}},"load":{"4":{"source_id":["bus",5],"load_bus":5,"status":1,"qd":0.19,"pd":0.9420000000000001,"index":4},"1":{"source_id":["bus",2],"load_bus":2,"status":1,"qd":0.127,"pd":0.217,"index":1},"12":{"source_id":["bus",17],"load_bus":17,"status":1,"qd":0.057999999999999996,"pd":0.09,"index":12},"20":{"source_id":["bus",29],"load_bus":29,"status":1,"qd":0.009000000000000001,"pd":0.024,"index":20},"2":{"source_id":["bus",3],"load_bus":3,"status":1,"qd":0.012,"pd":0.024,"index":2},"6":{"source_id":["bus",8],"load_bus":8,"status":1,"qd":0.3,"pd":0.3,"index":6},"11":{"source_id":["bus",16],"load_bus":16,"status":1,"qd":0.018000000000000002,"pd":0.035,"index":11},"13":{"source_id":["bus",18],"load_bus":18,"status":1,"qd":0.009000000000000001,"pd":0.032,"index":13},"5":{"source_id":["bus",7],"load_bus":7,"status":1,"qd":0.109,"pd":0.228,"index":5},"15":{"source_id":["bus",20],"load_bus":20,"status":1,"qd":0.006999999999999999,"pd":0.022000000000000002,"index":15},"16":{"source_id":["bus",21],"load_bus":21,"status":1,"qd":0.11199999999999999,"pd":0.175,"index":16},"14":{"source_id":["bus",19],"load_bus":19,"status":1,"qd":0.034,"pd":0.095,"index":14},"21":{"source_id":["bus",30],"load_bus":30,"status":1,"qd":0.019,"pd":0.106,"index":21},"7":{"source_id":["bus",10],"load_bus":10,"status":1,"qd":0.02,"pd":0.057999999999999996,"index":7},"8":{"source_id":["bus",12],"load_bus":12,"status":1,"qd":0.075,"pd":0.11199999999999999,"index":8},"17":{"source_id":["bus",23],"load_bus":23,"status":1,"qd":0.016,"pd":0.032,"index":17},"10":{"source_id":["bus",15],"load_bus":15,"status":1,"qd":0.025,"pd":0.08199999999999999,"index":10},"19":{"source_id":["bus",26],"load_bus":26,"status":1,"qd":0.023,"pd":0.035,"index":19},"9":{"source_id":["bus",14],"load_bus":14,"status":1,"qd":0.016,"pd":0.062,"index":9},"18":{"source_id":["bus",24],"load_bus":24,"status":1,"qd":0.067,"pd":0.087,"index":18},"3":{"source_id":["bus",4],"load_bus":4,"status":1,"qd":0.016,"pd":0.076,"index":3}}},"pf":{}}